/*--------------------------------*- C++ -*----------------------------------*\
| =========                 |                                                 |
| \\      /  F ield         | OpenFOAM: The Open Source CFD Toolbox           |
|  \\    /   O peration     | Version:  2.3.0                                 |
|   \\  /    A nd           | Web:      www.OpenFOAM.org                      |
|    \\/     M anipulation  |                                                 |
\*---------------------------------------------------------------------------*/
FoamFile
{
    version     2.0;
    format      ascii;
    class       volScalarField;
    location    "0";
    object      alphat;
}
// * * * * * * * * * * * * * * * * * * * * * * * * * * * * * * * * * * * * * //

dimensions      [1 -1 -1 0 0 0 0];

internalField   uniform 0.0;

boundaryField
{
    inlet
    {
        type            calculated;
        value           uniform 0.0;
    }
    
    #include "emptySymmetry.include"
    
    vert-outlet
    {
        type            zeroGradient;
    }
    
    horiz-outlet
    {
        type            zeroGradient;
    }
    
    left-walls
    {
	type            compressible::alphatWallFunction;
	value		uniform 0.0;
    }
    
    nozzle-walls
    {
	type            compressible::alphatWallFunction;
	value		uniform 0.0;
    }
}


// ************************************************************************* //



