/*--------------------------------*- C++ -*----------------------------------*\
| =========                 |                                                 |
| \\      /  F ield         | OpenFOAM: The Open Source CFD Toolbox           |
|  \\    /   O peration     | Version:  2.3.0                                 |
|   \\  /    A nd           | Web:      www.OpenFOAM.org                      |
|    \\/     M anipulation  |                                                 |
\*---------------------------------------------------------------------------*/
FoamFile
{
    version     2.0;
    format      ascii;
    class       dictionary;
    location    "system";
    object      controlDict;
}
// * * * * * * * * * * * * * * * * * * * * * * * * * * * * * * * * * * * * * //

application     pisoCentralFoam;

startFrom       latestTime;

startTime       0;

stopAt          endTime;

endTime         60000;

deltaT          1;

writeControl    timeStep;

writeInterval   500;

purgeWrite      0;

writeFormat     ascii;

writePrecision  12;

writeCompression off;

timeFormat      general;

timePrecision   9;

runTimeModifiable true;

adjustTimeStep  false;

maxCo           0.5;

maxDeltaT       1e-3;

rDeltaTSmoothingCoeff 0.0001;
//rDeltaTSmoothingCoeff 0.005;

rDeltaTDampingCoeff	0.7;

CourantType	cellCourant;

libs ("libcompressibleTools.so");

// ************************************************************************* //
