/*---------------------------------------------------------------------------*\
| =========                 |                                                 |
| \\      /  F ield         | OpenFOAM: The Open Source CFD Toolbox           |
|  \\    /   O peration     | Version:  1.3                                   |
|   \\  /    A nd           | Web:      http://www.openfoam.org               |
|    \\/     M anipulation  |                                                 |
\*---------------------------------------------------------------------------*/
 
FoamFile
{
    version         2.0;
    format          ascii;
 
    root            "";
    case            "";
    instance        "";
    local           "";
 
    class           dictionary;
    object          decomposeParDict;
}
 
// * * * * * * * * * * * * * * * * * * * * * * * * * * * * * * * * * * * * * //
 
 
numberOfSubdomains 12;
 
method          scotch;
 
simpleCoeffs
{
    n               (16 1 1);
    delta           0.001;
}
 
hierarchicalCoeffs
{
    n               (16 1 1);
    delta           0.001;
    order           xyz;
}
 
metisCoeffs
{
    processorWeights 
    (
        1
        1
        1
    );
}
 
manualCoeffs
{
    dataFile        "";
}
 
distributed     no;
 
roots           
(
);
 
 
// ************************************************************************* //
 
